all_sdf_files.sdf
  ChemDraw04081513072D

 13 14  0  0  0  0  0  0  0  0999 V2000
   -0.3572    1.0313    0.0000 C   0  0  0  0  0  0  0  0  0  0  0  0
   -1.0717    1.4437    0.0000 C   0  0  0  0  0  0  0  0  0  0  0  0
   -1.7862    1.0313    0.0000 C   0  0  0  0  0  0  0  0  0  0  0  0
   -1.7862    0.2063    0.0000 C   0  0  0  0  0  0  0  0  0  0  0  0
   -1.0717   -0.2062    0.0000 C   0  0  0  0  0  0  0  0  0  0  0  0
   -0.3572    0.2063    0.0000 C   0  0  0  0  0  0  0  0  0  0  0  0
    0.3572   -0.2062    0.0000 N   0  0  0  0  0  0  0  0  0  0  0  0
    1.0718    0.2063    0.0000 C   0  0  0  0  0  0  0  0  0  0  0  0
    1.0718    1.0313    0.0000 C   0  0  0  0  0  0  0  0  0  0  0  0
    0.3572    1.4437    0.0000 C   0  0  0  0  0  0  0  0  0  0  0  0
    1.7862   -0.2062    0.0000 O   0  0  0  0  0  0  0  0  0  0  0  0
    0.3572   -1.0312    0.0000 C   0  0  0  0  0  0  0  0  0  0  0  0
    1.0717   -1.4437    0.0000 C   0  0  0  0  0  0  0  0  0  0  0  0
  1  2  1  0      
  1  6  2  0      
  1 10  1  0      
  2  3  2  0      
  3  4  1  0      
  4  5  2  0      
  5  6  1  0      
  6  7  1  0      
  7  8  1  0      
  8  9  1  0      
  9 10  2  0      
  8 11  2  0      
  7 12  1  0      
 12 13  1  1      
M  END
$$$$
all_sdf_files.sdf
  ChemDraw04081513072D

 12 13  0  0  0  0  0  0  0  0999 V2000
    0.0797    0.4125    0.0000 C   0  0  0  0  0  0  0  0  0  0  0  0
   -0.6348    0.0000    0.0000 C   0  0  0  0  0  0  0  0  0  0  0  0
   -0.6348   -0.8250    0.0000 C   0  0  0  0  0  0  0  0  0  0  0  0
    0.0797   -1.2375    0.0000 C   0  0  0  0  0  0  0  0  0  0  0  0
    0.7942   -0.8250    0.0000 C   0  0  0  0  0  0  0  0  0  0  0  0
    0.7942    0.0000    0.0000 C   0  0  0  0  0  0  0  0  0  0  0  0
    1.5787   -1.0799    0.0000 N   0  0  0  0  0  0  0  0  0  0  0  0
    2.0637   -0.4125    0.0000 C   0  0  0  0  0  0  0  0  0  0  0  0
    1.5788    0.2549    0.0000 C   0  0  0  0  0  0  0  0  0  0  0  0
   -1.3492    0.4125    0.0000 C   0  0  0  0  0  0  0  0  0  0  0  0
   -2.0637    0.0000    0.0000 N   0  0  0  0  0  0  0  0  0  0  0  0
   -1.3493    1.2375    0.0000 O   0  0  0  0  0  0  0  0  0  0  0  0
  1  2  1  0      
  2  3  2  0      
  3  4  1  0      
  4  5  2  0      
  1  6  2  0      
  5  7  1  0      
  6  5  1  0      
  6  9  1  0      
  7  8  1  0      
  8  9  2  0      
  2 10  1  0      
 10 11  1  0      
 10 12  2  0      
M  END
$$$$
all_sdf_files.sdf
  ChemDraw04081513072D

 13 14  0  0  0  0  0  0  0  0999 V2000
   -1.0101   -0.3816    0.0000 C   0  0  0  0  0  0  0  0  0  0  0  0
   -1.7246   -0.7941    0.0000 C   0  0  0  0  0  0  0  0  0  0  0  0
   -1.7246   -1.6191    0.0000 C   0  0  0  0  0  0  0  0  0  0  0  0
   -1.0101   -2.0316    0.0000 C   0  0  0  0  0  0  0  0  0  0  0  0
   -0.2957   -1.6191    0.0000 C   0  0  0  0  0  0  0  0  0  0  0  0
   -0.2957   -0.7941    0.0000 C   0  0  0  0  0  0  0  0  0  0  0  0
    0.4189   -0.3816    0.0000 C   0  0  0  0  0  0  0  0  0  0  0  0
    1.1726   -0.7171    0.0000 O   0  0  0  0  0  0  0  0  0  0  0  0
    1.7246   -0.1041    0.0000 N   0  0  0  0  0  0  0  0  0  0  0  0
    1.3121    0.6104    0.0000 C   0  0  0  0  0  0  0  0  0  0  0  0
    0.5052    0.4389    0.0000 C   0  0  0  0  0  0  0  0  0  0  0  0
    1.6476    1.3641    0.0000 C   0  0  0  0  0  0  0  0  0  0  0  0
    1.1626    2.0316    0.0000 C   0  0  0  0  0  0  0  0  0  0  0  0
  1  2  1  0      
  2  3  2  0      
  3  4  1  0      
  4  5  2  0      
  5  6  1  0      
  1  6  2  0      
  6  7  1  0      
  7  8  1  0      
  7 11  2  0      
  8  9  1  0      
  9 10  2  0      
 10 11  1  0      
 10 12  1  0      
 12 13  1  1      
M  END
$$$$
all_sdf_files.sdf
  ChemDraw04081513072D

 12 13  0  0  0  0  0  0  0  0999 V2000
   -0.6909   -0.2222    0.0000 C   0  0  0  0  0  0  0  0  0  0  0  0
   -1.4054   -0.6347    0.0000 C   0  0  0  0  0  0  0  0  0  0  0  0
   -1.4054   -1.4598    0.0000 C   0  0  0  0  0  0  0  0  0  0  0  0
   -0.6909   -1.8722    0.0000 C   0  0  0  0  0  0  0  0  0  0  0  0
    0.0235   -1.4598    0.0000 C   0  0  0  0  0  0  0  0  0  0  0  0
    0.0235   -0.6347    0.0000 C   0  0  0  0  0  0  0  0  0  0  0  0
    0.7379   -0.2222    0.0000 C   0  0  0  0  0  0  0  0  0  0  0  0
    0.7379    0.6028    0.0000 N   0  0  0  0  0  0  0  0  0  0  0  0
    1.4054    1.0877    0.0000 C   0  0  0  0  0  0  0  0  0  0  0  0
    1.1504    1.8722    0.0000 C   0  0  0  0  0  0  0  0  0  0  0  0
    0.3254    1.8722    0.0000 N   0  0  0  0  0  0  0  0  0  0  0  0
    0.0705    1.0877    0.0000 C   0  0  0  0  0  0  0  0  0  0  0  0
  1  2  1  0      
  2  3  2  0      
  3  4  1  0      
  4  5  2  0      
  5  6  1  0      
  1  6  2  0      
  6  7  1  0      
  7  8  1  0      
  8  9  1  0      
  8 12  1  0      
  9 10  2  0      
 10 11  1  0      
 11 12  2  0      
M  END
$$$$
all_sdf_files.sdf
  ChemDraw04081513072D

 11 11  0  0  0  0  0  0  0  0999 V2000
   -0.7145    1.4437    0.0000 C   0  0  0  0  0  0  0  0  0  0  0  0
   -1.4289    1.0313    0.0000 C   0  0  0  0  0  0  0  0  0  0  0  0
   -1.4289    0.2063    0.0000 C   0  0  0  0  0  0  0  0  0  0  0  0
   -0.7145   -0.2062    0.0000 C   0  0  0  0  0  0  0  0  0  0  0  0
   -0.0000    0.2063    0.0000 C   0  0  0  0  0  0  0  0  0  0  0  0
   -0.0000    1.0313    0.0000 C   0  0  0  0  0  0  0  0  0  0  0  0
    0.7145   -0.2062    0.0000 C   0  0  0  0  0  0  0  0  0  0  0  0
    1.4289    0.2063    0.0000 O   0  0  0  0  0  0  0  0  0  0  0  0
    0.7145   -1.0312    0.0000 N   0  0  0  0  0  0  0  0  0  0  0  0
    1.4289   -1.4437    0.0000 C   0  0  0  0  0  0  0  0  0  0  0  0
   -0.0000   -1.4437    0.0000 C   0  0  0  0  0  0  0  0  0  0  0  0
  1  2  1  0      
  2  3  2  0      
  3  4  1  0      
  4  5  2  0      
  5  6  1  0      
  1  6  2  0      
  5  7  1  0      
  7  8  2  0      
  7  9  1  0      
  9 10  1  0      
  9 11  1  0      
M  END
$$$$
all_sdf_files.sdf
  ChemDraw04081513072D

 16 16  0  0  0  0  0  0  0  0999 V2000
   -2.5005    0.4125    0.0000 C   0  0  0  0  0  0  0  0  0  0  0  0
   -3.2150    0.0001    0.0000 C   0  0  0  0  0  0  0  0  0  0  0  0
   -3.2150   -0.8250    0.0000 C   0  0  0  0  0  0  0  0  0  0  0  0
   -2.5005   -1.2375    0.0000 C   0  0  0  0  0  0  0  0  0  0  0  0
   -1.7861   -0.8250    0.0000 C   0  0  0  0  0  0  0  0  0  0  0  0
   -1.7861    0.0001    0.0000 C   0  0  0  0  0  0  0  0  0  0  0  0
   -1.0717   -1.2375    0.0000 O   0  0  0  0  0  0  0  0  0  0  0  0
   -1.0717    0.4125    0.0000 C   0  0  0  0  0  0  0  0  0  0  0  0
   -1.0717    1.2375    0.0000 O   0  0  0  0  0  0  0  0  0  0  0  0
   -0.3572    0.0001    0.0000 N   0  0  0  0  0  0  0  0  0  0  0  0
    0.3573    0.4124    0.0000 C   0  0  0  0  0  0  0  0  0  0  0  0
    1.0717   -0.0000    0.0000 C   0  0  0  0  0  0  0  0  0  0  0  0
    0.3573    1.2374    0.0000 O   0  0  0  0  0  0  0  0  0  0  0  0
    1.7861    0.4124    0.0000 C   0  0  0  0  0  0  0  0  0  0  0  0
    2.5006   -0.0000    0.0000 C   0  0  0  0  0  0  0  0  0  0  0  0
    3.2150    0.4124    0.0000 C   0  0  0  0  0  0  0  0  0  0  0  0
  1  2  1  0      
  2  3  2  0      
  3  4  1  0      
  4  5  2  0      
  5  6  1  0      
  1  6  2  0      
  5  7  1  0      
  6  8  1  0      
  8  9  2  0      
  8 10  1  0      
 10 11  1  0      
 11 12  1  0      
 11 13  2  0      
 12 14  1  0      
 14 15  1  0      
 15 16  1  0      
M  END
$$$$
all_sdf_files.sdf
  ChemDraw04081513072D

 12 13  0  0  0  0  0  0  0  0999 V2000
   -0.3572    0.4125    0.0000 C   0  0  0  0  0  0  0  0  0  0  0  0
   -1.0717    0.8249    0.0000 C   0  0  0  0  0  0  0  0  0  0  0  0
   -1.7862    0.4125    0.0000 C   0  0  0  0  0  0  0  0  0  0  0  0
   -1.7862   -0.4125    0.0000 C   0  0  0  0  0  0  0  0  0  0  0  0
   -1.0717   -0.8250    0.0000 C   0  0  0  0  0  0  0  0  0  0  0  0
   -0.3572   -0.4125    0.0000 C   0  0  0  0  0  0  0  0  0  0  0  0
    0.3572   -0.8250    0.0000 N   0  0  0  0  0  0  0  0  0  0  0  0
    1.0718   -0.4125    0.0000 C   0  0  0  0  0  0  0  0  0  0  0  0
    1.0718    0.4125    0.0000 N   0  0  0  0  0  0  0  0  0  0  0  0
    0.3572    0.8249    0.0000 C   0  0  0  0  0  0  0  0  0  0  0  0
    1.7862   -0.8250    0.0000 O   0  0  0  0  0  0  0  0  0  0  0  0
    1.7862    0.8250    0.0000 C   0  0  0  0  0  0  0  0  0  0  0  0
  1  2  1  0      
  2  3  2  0      
  3  4  1  0      
  4  5  2  0      
  5  6  1  0      
  7  8  1  0      
  8  9  1  0      
  9 10  1  0      
  1  6  2  0      
  1 10  1  0      
  6  7  1  0      
  8 11  2  0      
  9 12  1  0      
M  END
$$$$
all_sdf_files.sdf
  ChemDraw04081513072D

 13 13  0  0  0  0  0  0  0  0999 V2000
   -1.0717    2.4750    0.0000 C   0  0  0  0  0  0  0  0  0  0  0  0
   -1.0717    1.6500    0.0000 O   0  0  0  0  0  0  0  0  0  0  0  0
   -0.3572    1.2375    0.0000 C   0  0  0  0  0  0  0  0  0  0  0  0
    0.3572    1.6500    0.0000 O   0  0  0  0  0  0  0  0  0  0  0  0
   -0.3572    0.4125    0.0000 C   0  0  0  0  0  0  0  0  0  0  0  0
    0.3572    0.0000    0.0000 C   0  0  0  0  0  0  0  0  0  0  0  0
    0.3572   -0.8250    0.0000 C   0  0  0  0  0  0  0  0  0  0  0  0
    1.0717   -1.2375    0.0000 I   0  0  0  0  0  0  0  0  0  0  0  0
   -0.3572   -1.2375    0.0000 C   0  0  0  0  0  0  0  0  0  0  0  0
   -0.3572   -2.0625    0.0000 O   0  0  0  0  0  0  0  0  0  0  0  0
   -1.0717   -0.8250    0.0000 C   0  0  0  0  0  0  0  0  0  0  0  0
   -1.0717    0.0000    0.0000 C   0  0  0  0  0  0  0  0  0  0  0  0
    0.3573   -2.4750    0.0000 C   0  0  0  0  0  0  0  0  0  0  0  0
  1  2  1  0      
  2  3  1  0      
  3  4  2  0      
  3  5  1  0      
  5  6  2  0      
  6  7  1  0      
  7  8  1  0      
  7  9  2  0      
  9 10  1  0      
  9 11  1  0      
 11 12  2  0      
  5 12  1  0      
 10 13  1  1      
M  END
$$$$
all_sdf_files.sdf
  ChemDraw04081513072D

 13 14  0  0  0  0  0  0  0  0999 V2000
    0.7145    0.2223    0.0000 O   0  0  0  0  0  0  0  0  0  0  0  0
   -0.0000    0.6348    0.0000 C   0  0  0  0  0  0  0  0  0  0  0  0
   -0.7144    0.2223    0.0000 C   0  0  0  0  0  0  0  0  0  0  0  0
   -1.4289    0.6348    0.0000 C   0  0  0  0  0  0  0  0  0  0  0  0
   -1.4289    1.4598    0.0000 C   0  0  0  0  0  0  0  0  0  0  0  0
   -0.7144    1.8723    0.0000 C   0  0  0  0  0  0  0  0  0  0  0  0
   -0.0000    1.4598    0.0000 C   0  0  0  0  0  0  0  0  0  0  0  0
   -0.7144   -0.6027    0.0000 C   0  0  0  0  0  0  0  0  0  0  0  0
   -0.0470   -1.0876    0.0000 C   0  0  0  0  0  0  0  0  0  0  0  0
   -0.3019   -1.8723    0.0000 C   0  0  0  0  0  0  0  0  0  0  0  0
   -1.1269   -1.8723    0.0000 N   0  0  0  0  0  0  0  0  0  0  0  0
   -1.3819   -1.0876    0.0000 O   0  0  0  0  0  0  0  0  0  0  0  0
    1.4289    0.6348    0.0000 C   0  0  0  0  0  0  0  0  0  0  0  0
  1  2  1  0      
  2  3  2  0      
  3  4  1  0      
  4  5  2  0      
  5  6  1  0      
  6  7  2  0      
  2  7  1  0      
  3  8  1  0      
  8  9  2  0      
  9 10  1  0      
 10 11  2  0      
 11 12  1  0      
  8 12  1  0      
  1 13  1  6      
M  END
$$$$
all_sdf_files.sdf
  ChemDraw04081513072D

 16 17  0  0  0  0  0  0  0  0999 V2000
   -0.7144    2.2687    0.0000 O   0  0  0  0  0  0  0  0  0  0  0  0
    0.0000    1.8562    0.0000 C   0  0  0  0  0  0  0  0  0  0  0  0
    0.0000    1.0312    0.0000 C   0  0  0  0  0  0  0  0  0  0  0  0
    0.7144    0.6187    0.0000 C   0  0  0  0  0  0  0  0  0  0  0  0
    0.7144   -0.2063    0.0000 C   0  0  0  0  0  0  0  0  0  0  0  0
    0.0000   -0.6188    0.0000 C   0  0  0  0  0  0  0  0  0  0  0  0
   -0.7144   -0.2063    0.0000 N   0  0  0  0  0  0  0  0  0  0  0  0
   -0.7144    0.6187    0.0000 C   0  0  0  0  0  0  0  0  0  0  0  0
    0.0000   -1.4437    0.0000 N   0  0  0  0  0  0  0  0  0  0  0  0
    0.7144   -1.8562    0.0000 C   0  0  0  0  0  0  0  0  0  0  0  0
    0.7144   -2.6812    0.0000 C   0  0  0  0  0  0  0  0  0  0  0  0
    0.0000   -3.0937    0.0000 O   0  0  0  0  0  0  0  0  0  0  0  0
   -0.7144   -2.6812    0.0000 C   0  0  0  0  0  0  0  0  0  0  0  0
   -0.7144   -1.8562    0.0000 C   0  0  0  0  0  0  0  0  0  0  0  0
    0.7144    2.2687    0.0000 O   0  0  0  0  0  0  0  0  0  0  0  0
   -0.7144    3.0937    0.0000 C   0  0  0  0  0  0  0  0  0  0  0  0
  1  2  1  0      
  2  3  1  0      
  3  4  2  0      
  4  5  1  0      
  5  6  2  0      
  6  7  1  0      
  7  8  2  0      
  3  8  1  0      
  6  9  1  0      
  9 10  1  0      
 10 11  1  0      
 11 12  1  0      
 12 13  1  0      
 13 14  1  0      
  9 14  1  0      
  2 15  2  0      
  1 16  1  6      
M  END
$$$$
all_sdf_files.sdf
  ChemDraw04081513072D

 14 15  0  0  0  0  0  0  0  0999 V2000
   -0.7144    2.4910    0.0000 C   0  0  0  0  0  0  0  0  0  0  0  0
    0.0000    2.0786    0.0000 C   0  0  0  0  0  0  0  0  0  0  0  0
    0.7144    2.4910    0.0000 O   0  0  0  0  0  0  0  0  0  0  0  0
    0.0000    1.2536    0.0000 C   0  0  0  0  0  0  0  0  0  0  0  0
    0.7144    0.8411    0.0000 C   0  0  0  0  0  0  0  0  0  0  0  0
    0.7144    0.0161    0.0000 C   0  0  0  0  0  0  0  0  0  0  0  0
    0.0000   -0.3964    0.0000 C   0  0  0  0  0  0  0  0  0  0  0  0
   -0.7144    0.0161    0.0000 C   0  0  0  0  0  0  0  0  0  0  0  0
   -0.7144    0.8411    0.0000 C   0  0  0  0  0  0  0  0  0  0  0  0
    0.0000   -1.2214    0.0000 N   0  0  0  0  0  0  0  0  0  0  0  0
    0.6674   -1.7063    0.0000 C   0  0  0  0  0  0  0  0  0  0  0  0
    0.4125   -2.4910    0.0000 C   0  0  0  0  0  0  0  0  0  0  0  0
   -0.4125   -2.4910    0.0000 N   0  0  0  0  0  0  0  0  0  0  0  0
   -0.6674   -1.7063    0.0000 C   0  0  0  0  0  0  0  0  0  0  0  0
  1  2  1  0      
  2  3  2  0      
  2  4  1  0      
  4  5  2  0      
  5  6  1  0      
  6  7  2  0      
  7  8  1  0      
  8  9  2  0      
  4  9  1  0      
  7 10  1  0      
 10 11  1  0      
 11 12  2  0      
 12 13  1  0      
 13 14  2  0      
 10 14  1  0      
M  END
$$$$
all_sdf_files.sdf
  ChemDraw04081513072D

 15 16  0  0  0  0  0  0  0  0999 V2000
    1.4289    2.4910    0.0000 C   0  0  0  0  0  0  0  0  0  0  0  0
    0.7144    2.0785    0.0000 O   0  0  0  0  0  0  0  0  0  0  0  0
    0.7144    1.2535    0.0000 C   0  0  0  0  0  0  0  0  0  0  0  0
    1.4289    0.8410    0.0000 O   0  0  0  0  0  0  0  0  0  0  0  0
   -0.0001    0.8410    0.0000 C   0  0  0  0  0  0  0  0  0  0  0  0
   -0.0001    0.0160    0.0000 C   0  0  0  0  0  0  0  0  0  0  0  0
   -0.7144   -0.3964    0.0000 C   0  0  0  0  0  0  0  0  0  0  0  0
   -1.4289    0.0160    0.0000 C   0  0  0  0  0  0  0  0  0  0  0  0
   -1.4289    0.8410    0.0000 C   0  0  0  0  0  0  0  0  0  0  0  0
   -0.7144    1.2535    0.0000 C   0  0  0  0  0  0  0  0  0  0  0  0
   -0.7144   -1.2214    0.0000 C   0  0  0  0  0  0  0  0  0  0  0  0
   -0.0470   -1.7063    0.0000 C   0  0  0  0  0  0  0  0  0  0  0  0
   -0.3019   -2.4910    0.0000 N   0  0  0  0  0  0  0  0  0  0  0  0
   -1.1269   -2.4910    0.0000 C   0  0  0  0  0  0  0  0  0  0  0  0
   -1.3819   -1.7063    0.0000 O   0  0  0  0  0  0  0  0  0  0  0  0
  1  2  1  0      
  2  3  1  0      
  3  4  2  0      
  3  5  1  0      
  5  6  2  0      
  6  7  1  0      
  7  8  2  0      
  8  9  1  0      
  9 10  2  0      
  5 10  1  0      
  7 11  1  0      
 11 12  2  0      
 12 13  1  0      
 13 14  2  0      
 14 15  1  0      
 11 15  1  0      
M  END
$$$$
all_sdf_files.sdf
  ChemDraw04081513072D

 18 19  0  0  0  0  0  0  0  0999 V2000
    0.3572    3.0937    0.0000 C   0  0  0  0  0  0  0  0  0  0  0  0
    0.3572    2.2687    0.0000 O   0  0  0  0  0  0  0  0  0  0  0  0
    1.0717    1.8562    0.0000 C   0  0  0  0  0  0  0  0  0  0  0  0
    1.7861    2.2687    0.0000 O   0  0  0  0  0  0  0  0  0  0  0  0
    1.0717    1.0312    0.0000 C   0  0  0  0  0  0  0  0  0  0  0  0
    1.7861    0.6187    0.0000 C   0  0  0  0  0  0  0  0  0  0  0  0
    1.7861   -0.2062    0.0000 C   0  0  0  0  0  0  0  0  0  0  0  0
    1.0717   -0.6187    0.0000 C   0  0  0  0  0  0  0  0  0  0  0  0
    1.0717   -1.4437    0.0000 C   0  0  0  0  0  0  0  0  0  0  0  0
    0.3572   -1.8562    0.0000 N   0  0  0  0  0  0  0  0  0  0  0  0
    0.3572   -2.6812    0.0000 C   0  0  0  0  0  0  0  0  0  0  0  0
   -0.3572   -3.0937    0.0000 C   0  0  0  0  0  0  0  0  0  0  0  0
   -1.0717   -2.6812    0.0000 N   0  0  0  0  0  0  0  0  0  0  0  0
   -1.7861   -3.0937    0.0000 C   0  0  0  0  0  0  0  0  0  0  0  0
   -1.0717   -1.8562    0.0000 C   0  0  0  0  0  0  0  0  0  0  0  0
   -0.3572   -1.4437    0.0000 C   0  0  0  0  0  0  0  0  0  0  0  0
    0.3572   -0.2062    0.0000 C   0  0  0  0  0  0  0  0  0  0  0  0
    0.3572    0.6187    0.0000 C   0  0  0  0  0  0  0  0  0  0  0  0
  1  2  1  0      
  2  3  1  0      
  3  4  2  0      
  3  5  1  0      
  5  6  2  0      
  6  7  1  0      
  7  8  2  0      
  8  9  1  0      
  9 10  1  0      
 10 11  1  0      
 11 12  1  0      
 12 13  1  0      
 13 14  1  0      
 13 15  1  0      
 15 16  1  0      
 10 16  1  0      
  8 17  1  0      
 17 18  2  0      
  5 18  1  0      
M  END
$$$$
all_sdf_files.sdf
  ChemDraw04081513072D

 14 15  0  0  0  0  0  0  0  0999 V2000
   -2.5006   -0.4125    0.0000 C   0  0  0  0  0  0  0  0  0  0  0  0
   -1.7861    0.0000    0.0000 O   0  0  0  0  0  0  0  0  0  0  0  0
   -1.0716   -0.4125    0.0000 C   0  0  0  0  0  0  0  0  0  0  0  0
   -1.0716   -1.2375    0.0000 O   0  0  0  0  0  0  0  0  0  0  0  0
   -0.3572    0.0000    0.0000 C   0  0  0  0  0  0  0  0  0  0  0  0
    0.3572   -0.4125    0.0000 C   0  0  0  0  0  0  0  0  0  0  0  0
    1.0717    0.0000    0.0000 C   0  0  0  0  0  0  0  0  0  0  0  0
    1.0717    0.8250    0.0000 C   0  0  0  0  0  0  0  0  0  0  0  0
    0.3572    1.2375    0.0000 C   0  0  0  0  0  0  0  0  0  0  0  0
   -0.3572    0.8250    0.0000 C   0  0  0  0  0  0  0  0  0  0  0  0
    1.7861    1.2375    0.0000 N   0  0  0  0  0  0  0  0  0  0  0  0
    2.5006    0.8250    0.0000 C   0  0  0  0  0  0  0  0  0  0  0  0
    2.5006    0.0000    0.0000 C   0  0  0  0  0  0  0  0  0  0  0  0
    1.7861   -0.4125    0.0000 C   0  0  0  0  0  0  0  0  0  0  0  0
  1  2  1  0      
  2  3  1  0      
  3  4  2  0      
  3  5  1  0      
  5  6  2  0      
  6  7  1  0      
  7  8  2  0      
  8  9  1  0      
  9 10  2  0      
  5 10  1  0      
  8 11  1  0      
 11 12  2  0      
 12 13  1  0      
 13 14  2  0      
  7 14  1  0      
M  END
$$$$
all_sdf_files.sdf
  ChemDraw04081513072D

 12 13  0  0  0  0  0  0  0  0999 V2000
   -0.0797    1.4437    0.0000 C   0  0  0  0  0  0  0  0  0  0  0  0
    0.6347    1.0313    0.0000 O   0  0  0  0  0  0  0  0  0  0  0  0
    0.6347    0.2063    0.0000 C   0  0  0  0  0  0  0  0  0  0  0  0
    1.3492   -0.2062    0.0000 C   0  0  0  0  0  0  0  0  0  0  0  0
    1.3492   -1.0312    0.0000 C   0  0  0  0  0  0  0  0  0  0  0  0
    0.6347   -1.4437    0.0000 C   0  0  0  0  0  0  0  0  0  0  0  0
   -0.0797   -1.0312    0.0000 C   0  0  0  0  0  0  0  0  0  0  0  0
   -0.0797   -0.2062    0.0000 C   0  0  0  0  0  0  0  0  0  0  0  0
   -0.8644    0.0487    0.0000 C   0  0  0  0  0  0  0  0  0  0  0  0
   -1.1193    0.8333    0.0000 N   0  0  0  0  0  0  0  0  0  0  0  0
   -1.3492   -0.6187    0.0000 N   0  0  0  0  0  0  0  0  0  0  0  0
   -0.8644   -1.2861    0.0000 O   0  0  0  0  0  0  0  0  0  0  0  0
  1  2  1  0      
  2  3  1  0      
  3  4  2  0      
  4  5  1  0      
  5  6  2  0      
  6  7  1  0      
  7  8  2  0      
  3  8  1  0      
  8  9  1  0      
  9 10  1  0      
  9 11  2  0      
 11 12  1  0      
  7 12  1  0      
M  END
$$$$
all_sdf_files.sdf
  ChemDraw04081513072D

 13 14  0  0  0  0  0  0  0  0999 V2000
   -1.4289    1.4437    0.0000 N   0  0  0  0  0  0  0  0  0  0  0  0
   -0.7144    1.0312    0.0000 C   0  0  0  0  0  0  0  0  0  0  0  0
    0.0000    1.4437    0.0000 O   0  0  0  0  0  0  0  0  0  0  0  0
   -0.7144    0.2062    0.0000 C   0  0  0  0  0  0  0  0  0  0  0  0
   -1.4289   -0.2062    0.0000 C   0  0  0  0  0  0  0  0  0  0  0  0
   -1.4289   -1.0312    0.0000 C   0  0  0  0  0  0  0  0  0  0  0  0
   -0.7144   -1.4437    0.0000 C   0  0  0  0  0  0  0  0  0  0  0  0
    0.0000   -1.0312    0.0000 C   0  0  0  0  0  0  0  0  0  0  0  0
    0.0000   -0.2062    0.0000 C   0  0  0  0  0  0  0  0  0  0  0  0
    0.7144    0.2062    0.0000 O   0  0  0  0  0  0  0  0  0  0  0  0
    1.4289   -0.2062    0.0000 C   0  0  0  0  0  0  0  0  0  0  0  0
    1.4289   -1.0312    0.0000 C   0  0  0  0  0  0  0  0  0  0  0  0
    0.7144   -1.4437    0.0000 O   0  0  0  0  0  0  0  0  0  0  0  0
  1  2  1  0      
  2  3  2  0      
  2  4  1  0      
  4  5  2  0      
  5  6  1  0      
  6  7  2  0      
  7  8  1  0      
  8  9  2  0      
  4  9  1  0      
  9 10  1  0      
 10 11  1  0      
 11 12  1  0      
 12 13  1  0      
  8 13  1  0      
M  END
$$$$
all_sdf_files.sdf
  ChemDraw04081513072D

 14 15  0  0  0  0  0  0  0  0999 V2000
   -2.1434   -1.4437    0.0000 C   0  0  0  0  0  0  0  0  0  0  0  0
   -1.4289   -1.0312    0.0000 O   0  0  0  0  0  0  0  0  0  0  0  0
   -1.4289   -0.2062    0.0000 C   0  0  0  0  0  0  0  0  0  0  0  0
   -2.1434    0.2062    0.0000 O   0  0  0  0  0  0  0  0  0  0  0  0
   -0.7144    0.2062    0.0000 C   0  0  0  0  0  0  0  0  0  0  0  0
   -0.7144    1.0312    0.0000 C   0  0  0  0  0  0  0  0  0  0  0  0
   -0.0001    1.4437    0.0000 C   0  0  0  0  0  0  0  0  0  0  0  0
    0.7144    1.0312    0.0000 C   0  0  0  0  0  0  0  0  0  0  0  0
    1.4289    1.4437    0.0000 N   0  0  0  0  0  0  0  0  0  0  0  0
    2.1434    1.0312    0.0000 C   0  0  0  0  0  0  0  0  0  0  0  0
    2.1434    0.2062    0.0000 C   0  0  0  0  0  0  0  0  0  0  0  0
    1.4289   -0.2062    0.0000 N   0  0  0  0  0  0  0  0  0  0  0  0
    0.7144    0.2062    0.0000 C   0  0  0  0  0  0  0  0  0  0  0  0
   -0.0001   -0.2062    0.0000 C   0  0  0  0  0  0  0  0  0  0  0  0
  2  1  1  6      
  2  3  1  0      
  3  4  2  0      
  3  5  1  0      
  5  6  2  0      
  6  7  1  0      
  7  8  2  0      
  8  9  1  0      
  9 10  2  0      
 10 11  1  0      
 11 12  2  0      
 12 13  1  0      
  8 13  1  0      
 13 14  2  0      
  5 14  1  0      
M  END
$$$$
all_sdf_files.sdf
  ChemDraw04081513072D

 14 15  0  0  0  0  0  0  0  0999 V2000
    2.0637    1.7572    0.0000 C   0  0  0  0  0  0  0  0  0  0  0  0
    1.3493    1.3448    0.0000 C   0  0  0  0  0  0  0  0  0  0  0  0
    0.6348    1.7572    0.0000 O   0  0  0  0  0  0  0  0  0  0  0  0
    1.3493    0.5198    0.0000 N   0  0  0  0  0  0  0  0  0  0  0  0
    0.6348    0.1073    0.0000 C   0  0  0  0  0  0  0  0  0  0  0  0
    0.6348   -0.7177    0.0000 C   0  0  0  0  0  0  0  0  0  0  0  0
   -0.0797   -1.1302    0.0000 C   0  0  0  0  0  0  0  0  0  0  0  0
   -0.7942   -0.7177    0.0000 C   0  0  0  0  0  0  0  0  0  0  0  0
   -1.5788   -0.9726    0.0000 C   0  0  0  0  0  0  0  0  0  0  0  0
   -1.8337   -1.7572    0.0000 O   0  0  0  0  0  0  0  0  0  0  0  0
   -2.0637   -0.3052    0.0000 C   0  0  0  0  0  0  0  0  0  0  0  0
   -1.5788    0.3622    0.0000 C   0  0  0  0  0  0  0  0  0  0  0  0
   -0.7942    0.1073    0.0000 C   0  0  0  0  0  0  0  0  0  0  0  0
   -0.0797    0.5198    0.0000 C   0  0  0  0  0  0  0  0  0  0  0  0
  2  1  1  6      
  2  3  2  0      
  2  4  1  0      
  4  5  1  0      
  5  6  2  0      
  6  7  1  0      
  7  8  2  0      
  8  9  1  0      
  9 10  2  0      
  9 11  1  0      
 11 12  1  0      
 12 13  1  0      
  8 13  1  0      
 13 14  2  0      
  5 14  1  0      
M  END
$$$$
all_sdf_files.sdf
  ChemDraw04081513072D

 15 16  0  0  0  0  0  0  0  0999 V2000
   -1.7861    1.4437    0.0000 N   0  0  0  0  0  0  0  0  0  0  0  0
   -1.0717    1.0312    0.0000 C   0  0  0  0  0  0  0  0  0  0  0  0
   -0.3573    1.4437    0.0000 O   0  0  0  0  0  0  0  0  0  0  0  0
   -1.0717    0.2062    0.0000 C   0  0  0  0  0  0  0  0  0  0  0  0
   -0.3573   -0.2062    0.0000 C   0  0  0  0  0  0  0  0  0  0  0  0
   -0.3573   -1.0312    0.0000 C   0  0  0  0  0  0  0  0  0  0  0  0
   -1.0717   -1.4437    0.0000 C   0  0  0  0  0  0  0  0  0  0  0  0
   -1.7861   -1.0312    0.0000 C   0  0  0  0  0  0  0  0  0  0  0  0
   -1.7861   -0.2062    0.0000 C   0  0  0  0  0  0  0  0  0  0  0  0
    0.3572    0.2062    0.0000 N   0  0  0  0  0  0  0  0  0  0  0  0
    0.3572    1.0312    0.0000 C   0  0  0  0  0  0  0  0  0  0  0  0
    1.0717    1.4437    0.0000 C   0  0  0  0  0  0  0  0  0  0  0  0
    1.7861    1.0312    0.0000 C   0  0  0  0  0  0  0  0  0  0  0  0
    1.7861    0.2062    0.0000 C   0  0  0  0  0  0  0  0  0  0  0  0
    1.0717   -0.2062    0.0000 C   0  0  0  0  0  0  0  0  0  0  0  0
  1  2  1  0      
  2  3  2  0      
  2  4  1  0      
  4  5  2  0      
  5  6  1  0      
  6  7  2  0      
  7  8  1  0      
  8  9  2  0      
  4  9  1  0      
  5 10  1  0      
 10 11  1  0      
 11 12  1  0      
 12 13  1  0      
 13 14  1  0      
 14 15  1  0      
 10 15  1  0      
M  END
$$$$
all_sdf_files.sdf
  ChemDraw04081513072D

 11 12  0  0  0  0  0  0  0  0999 V2000
   -2.1189    0.0000    0.0000 N   0  0  0  0  0  0  0  0  0  0  0  0
   -1.2940    0.0000    0.0000 C   0  0  0  0  0  0  0  0  0  0  0  0
   -0.8091    0.6674    0.0000 N   0  0  0  0  0  0  0  0  0  0  0  0
   -0.0245    0.4125    0.0000 C   0  0  0  0  0  0  0  0  0  0  0  0
    0.6900    0.8250    0.0000 C   0  0  0  0  0  0  0  0  0  0  0  0
    1.4045    0.4125    0.0000 C   0  0  0  0  0  0  0  0  0  0  0  0
    1.4045   -0.4125    0.0000 C   0  0  0  0  0  0  0  0  0  0  0  0
    2.1189   -0.8250    0.0000 Cl  0  0  0  0  0  0  0  0  0  0  0  0
    0.6900   -0.8250    0.0000 C   0  0  0  0  0  0  0  0  0  0  0  0
   -0.0245   -0.4125    0.0000 C   0  0  0  0  0  0  0  0  0  0  0  0
   -0.8091   -0.6675    0.0000 S   0  0  0  0  0  0  0  0  0  0  0  0
  1  2  1  0      
  2  3  2  0      
  3  4  1  0      
  4  5  2  0      
  5  6  1  0      
  6  7  2  0      
  7  8  1  0      
  7  9  1  0      
  9 10  2  0      
  4 10  1  0      
 10 11  1  0      
  2 11  1  0      
M  END
$$$$
all_sdf_files.sdf
  ChemDraw04081513072D

  8  8  0  0  0  0  0  0  0  0999 V2000
   -0.7144    1.2535    0.0000 N   0  0  0  0  0  0  0  0  0  0  0  0
    0.0000    0.8410    0.0000 C   0  0  0  0  0  0  0  0  0  0  0  0
    0.7144    1.2535    0.0000 S   0  0  0  0  0  0  0  0  0  0  0  0
    0.0000    0.0161    0.0000 C   0  0  0  0  0  0  0  0  0  0  0  0
    0.6674   -0.4688    0.0000 C   0  0  0  0  0  0  0  0  0  0  0  0
    0.4125   -1.2535    0.0000 S   0  0  0  0  0  0  0  0  0  0  0  0
   -0.4124   -1.2535    0.0000 C   0  0  0  0  0  0  0  0  0  0  0  0
   -0.6674   -0.4688    0.0000 C   0  0  0  0  0  0  0  0  0  0  0  0
  1  2  1  0      
  2  3  2  0      
  2  4  1  0      
  4  5  2  0      
  5  6  1  0      
  6  7  1  0      
  7  8  2  0      
  4  8  1  0      
M  END
$$$$
all_sdf_files.sdf
  ChemDraw04081513072D

 11 11  0  0  0  0  0  0  0  0999 V2000
    1.8274   -1.5853    0.0000 C   0  0  0  0  0  0  0  0  0  0  0  0
    1.3425   -0.9179    0.0000 N   0  0  0  0  0  0  0  0  0  0  0  0
    0.5220   -1.0042    0.0000 C   0  0  0  0  0  0  0  0  0  0  0  0
    0.1865   -1.7578    0.0000 O   0  0  0  0  0  0  0  0  0  0  0  0
    0.0372   -0.3368    0.0000 C   0  0  0  0  0  0  0  0  0  0  0  0
   -0.7878   -0.3368    0.0000 N   0  0  0  0  0  0  0  0  0  0  0  0
   -1.0428    0.4479    0.0000 N   0  0  0  0  0  0  0  0  0  0  0  0
   -1.8274    0.7028    0.0000 C   0  0  0  0  0  0  0  0  0  0  0  0
   -0.3753    0.9329    0.0000 C   0  0  0  0  0  0  0  0  0  0  0  0
   -0.3753    1.7578    0.0000 C   0  0  0  0  0  0  0  0  0  0  0  0
    0.2921    0.4479    0.0000 C   0  0  0  0  0  0  0  0  0  0  0  0
  1  2  1  0      
  2  3  1  0      
  3  4  2  0      
  3  5  1  0      
  5  6  2  0      
  6  7  1  0      
  7  8  1  0      
  7  9  1  0      
  9 10  1  0      
  9 11  2  0      
  5 11  1  0      
M  END
$$$$
all_sdf_files.sdf
  ChemDraw04081513072D

 16 17  0  0  0  0  0  0  0  0999 V2000
   -0.7144    3.0937    0.0000 C   0  0  0  0  0  0  0  0  0  0  0  0
   -0.7144    2.2687    0.0000 N   0  0  0  0  0  0  0  0  0  0  0  0
    0.0000    1.8562    0.0000 C   0  0  0  0  0  0  0  0  0  0  0  0
    0.7144    2.2687    0.0000 O   0  0  0  0  0  0  0  0  0  0  0  0
    0.0000    1.0312    0.0000 C   0  0  0  0  0  0  0  0  0  0  0  0
    0.7144    0.6187    0.0000 C   0  0  0  0  0  0  0  0  0  0  0  0
    0.7144   -0.2063    0.0000 C   0  0  0  0  0  0  0  0  0  0  0  0
    0.0000   -0.6188    0.0000 C   0  0  0  0  0  0  0  0  0  0  0  0
   -0.7144   -0.2063    0.0000 N   0  0  0  0  0  0  0  0  0  0  0  0
   -0.7144    0.6187    0.0000 C   0  0  0  0  0  0  0  0  0  0  0  0
    0.0000   -1.4437    0.0000 C   0  0  0  0  0  0  0  0  0  0  0  0
    0.7144   -1.8562    0.0000 C   0  0  0  0  0  0  0  0  0  0  0  0
    0.7144   -2.6812    0.0000 C   0  0  0  0  0  0  0  0  0  0  0  0
    0.0000   -3.0937    0.0000 C   0  0  0  0  0  0  0  0  0  0  0  0
   -0.7144   -2.6812    0.0000 C   0  0  0  0  0  0  0  0  0  0  0  0
   -0.7144   -1.8562    0.0000 C   0  0  0  0  0  0  0  0  0  0  0  0
  1  2  1  0      
  2  3  1  0      
  3  4  2  0      
  3  5  1  0      
  5  6  2  0      
  6  7  1  0      
  7  8  2  0      
  8  9  1  0      
  9 10  2  0      
  5 10  1  0      
  8 11  1  0      
 11 12  2  0      
 12 13  1  0      
 13 14  2  0      
 14 15  1  0      
 15 16  2  0      
 11 16  1  0      
M  END
$$$$
all_sdf_files.sdf
  ChemDraw04081513072D

 13 14  0  0  0  0  0  0  0  0999 V2000
   -1.7652    1.6166    0.0000 C   0  0  0  0  0  0  0  0  0  0  0  0
   -1.5103    0.8319    0.0000 N   0  0  0  0  0  0  0  0  0  0  0  0
   -0.7033    0.6604    0.0000 C   0  0  0  0  0  0  0  0  0  0  0  0
   -0.1513    1.2735    0.0000 O   0  0  0  0  0  0  0  0  0  0  0  0
   -0.4484   -0.1242    0.0000 C   0  0  0  0  0  0  0  0  0  0  0  0
    0.3362   -0.3791    0.0000 C   0  0  0  0  0  0  0  0  0  0  0  0
    1.0507    0.0334    0.0000 O   0  0  0  0  0  0  0  0  0  0  0  0
    1.7652   -0.3791    0.0000 C   0  0  0  0  0  0  0  0  0  0  0  0
    1.7652   -1.2041    0.0000 C   0  0  0  0  0  0  0  0  0  0  0  0
    1.0507   -1.6166    0.0000 O   0  0  0  0  0  0  0  0  0  0  0  0
    0.3362   -1.2041    0.0000 C   0  0  0  0  0  0  0  0  0  0  0  0
   -0.4484   -1.4591    0.0000 C   0  0  0  0  0  0  0  0  0  0  0  0
   -0.9333   -0.7916    0.0000 S   0  0  0  0  0  0  0  0  0  0  0  0
  1  2  1  0      
  2  3  1  0      
  3  4  2  0      
  3  5  1  0      
  5  6  2  0      
  6  7  1  0      
  7  8  1  0      
  8  9  1  0      
  9 10  1  0      
 10 11  1  0      
  6 11  1  0      
 11 12  2  0      
 12 13  1  0      
  5 13  1  0      
M  END
$$$$
all_sdf_files.sdf
  ChemDraw04081513072D

 17 18  0  0  0  0  0  0  0  0999 V2000
   -2.1434    1.8562    0.0000 C   0  0  0  0  0  0  0  0  0  0  0  0
   -2.1434    1.0312    0.0000 N   0  0  0  0  0  0  0  0  0  0  0  0
   -1.4289    0.6187    0.0000 C   0  0  0  0  0  0  0  0  0  0  0  0
   -0.7144    1.0312    0.0000 O   0  0  0  0  0  0  0  0  0  0  0  0
   -1.4289   -0.2062    0.0000 C   0  0  0  0  0  0  0  0  0  0  0  0
   -0.7144   -0.6187    0.0000 C   0  0  0  0  0  0  0  0  0  0  0  0
    0.0000   -0.2062    0.0000 O   0  0  0  0  0  0  0  0  0  0  0  0
    0.7144   -0.6187    0.0000 C   0  0  0  0  0  0  0  0  0  0  0  0
    1.4289   -0.2062    0.0000 C   0  0  0  0  0  0  0  0  0  0  0  0
    2.1434   -0.6187    0.0000 C   0  0  0  0  0  0  0  0  0  0  0  0
    2.1434   -1.4437    0.0000 O   0  0  0  0  0  0  0  0  0  0  0  0
    1.4289   -1.8562    0.0000 C   0  0  0  0  0  0  0  0  0  0  0  0
    0.7144   -1.4437    0.0000 C   0  0  0  0  0  0  0  0  0  0  0  0
   -0.7144   -1.4437    0.0000 C   0  0  0  0  0  0  0  0  0  0  0  0
   -1.4289   -1.8562    0.0000 C   0  0  0  0  0  0  0  0  0  0  0  0
   -2.1434   -1.4437    0.0000 C   0  0  0  0  0  0  0  0  0  0  0  0
   -2.1434   -0.6187    0.0000 C   0  0  0  0  0  0  0  0  0  0  0  0
  1  2  1  0      
  2  3  1  0      
  3  4  2  0      
  3  5  1  0      
  5  6  2  0      
  6  7  1  0      
  7  8  1  0      
  8  9  1  0      
  9 10  1  0      
 10 11  1  0      
 11 12  1  0      
 12 13  1  0      
  8 13  1  0      
  6 14  1  0      
 14 15  2  0      
 15 16  1  0      
 16 17  2  0      
  5 17  1  0      
M  END
$$$$
all_sdf_files.sdf
  ChemDraw04081513072D

 13 13  0  0  0  0  0  0  0  0999 V2000
    0.3573    1.0312    0.0000 C   0  0  0  0  0  0  0  0  0  0  0  0
    0.3573    0.2063    0.0000 C   0  0  0  0  0  0  0  0  0  0  0  0
    1.0717   -0.2062    0.0000 C   0  0  0  0  0  0  0  0  0  0  0  0
    1.0717   -1.0312    0.0000 C   0  0  0  0  0  0  0  0  0  0  0  0
    1.7862   -1.4437    0.0000 O   0  0  0  0  0  0  0  0  0  0  0  0
    0.3573   -1.4437    0.0000 C   0  0  0  0  0  0  0  0  0  0  0  0
   -0.3572   -1.0312    0.0000 C   0  0  0  0  0  0  0  0  0  0  0  0
   -1.0717   -1.4437    0.0000 C   0  0  0  0  0  0  0  0  0  0  0  0
   -0.3572   -0.2062    0.0000 C   0  0  0  0  0  0  0  0  0  0  0  0
   -1.0717    0.2063    0.0000 C   0  0  0  0  0  0  0  0  0  0  0  0
   -1.7861    0.6188    0.0000 N   0  0  0  0  0  0  0  0  0  0  0  0
   -1.7862   -1.0312    0.0000 C   0  0  0  0  0  0  0  0  0  0  0  0
   -0.3572    1.4437    0.0000 C   0  0  0  0  0  0  0  0  0  0  0  0
  1  2  1  0      
  2  3  2  0      
  3  4  1  0      
  4  5  1  0      
  4  6  2  0      
  6  7  1  0      
  7  8  1  0      
  7  9  2  0      
  2  9  1  0      
  9 10  1  0      
 10 11  3  0      
  8 12  1  6      
  1 13  1  1      
M  END
$$$$
all_sdf_files.sdf
  ChemDraw04081513072D

 10 10  0  0  0  0  0  0  0  0999 V2000
   -0.7145   -1.2375    0.0000 N   0  0  0  0  0  0  0  0  0  0  0  0
   -0.0000   -0.8250    0.0000 C   0  0  0  0  0  0  0  0  0  0  0  0
   -0.0000    0.0000    0.0000 C   0  0  0  0  0  0  0  0  0  0  0  0
   -0.7145    0.4125    0.0000 C   0  0  0  0  0  0  0  0  0  0  0  0
   -1.4289    0.8250    0.0000 N   0  0  0  0  0  0  0  0  0  0  0  0
    0.7145    0.4125    0.0000 C   0  0  0  0  0  0  0  0  0  0  0  0
    0.7145    1.2375    0.0000 Cl  0  0  0  0  0  0  0  0  0  0  0  0
    1.4289    0.0000    0.0000 C   0  0  0  0  0  0  0  0  0  0  0  0
    1.4289   -0.8250    0.0000 C   0  0  0  0  0  0  0  0  0  0  0  0
    0.7145   -1.2375    0.0000 C   0  0  0  0  0  0  0  0  0  0  0  0
  1  2  1  0      
  2  3  2  0      
  3  4  1  0      
  4  5  3  0      
  3  6  1  0      
  6  7  1  0      
  6  8  2  0      
  8  9  1  0      
  9 10  2  0      
  2 10  1  0      
M  END
$$$$
all_sdf_files.sdf
  ChemDraw04081513072D

 12 12  0  0  0  0  0  0  0  0999 V2000
    0.7145   -1.8562    0.0000 N   0  0  0  0  0  0  0  0  0  0  0  0
    0.7145   -1.0312    0.0000 C   0  0  0  0  0  0  0  0  0  0  0  0
   -0.0000   -0.6187    0.0000 C   0  0  0  0  0  0  0  0  0  0  0  0
   -0.0000    0.2063    0.0000 C   0  0  0  0  0  0  0  0  0  0  0  0
    0.7145    0.6188    0.0000 C   0  0  0  0  0  0  0  0  0  0  0  0
    1.4289    0.2063    0.0000 C   0  0  0  0  0  0  0  0  0  0  0  0
    1.4289   -0.6187    0.0000 C   0  0  0  0  0  0  0  0  0  0  0  0
    0.7145    1.4438    0.0000 N   0  3  0  0  0  0  0  0  0  0  0  0
   -0.0000    1.8562    0.0000 O   0  5  0  0  0  0  0  0  0  0  0  0
    1.4289    1.8562    0.0000 O   0  0  0  0  0  0  0  0  0  0  0  0
   -0.7145   -1.0312    0.0000 C   0  0  0  0  0  0  0  0  0  0  0  0
   -1.4289   -1.4437    0.0000 N   0  0  0  0  0  0  0  0  0  0  0  0
  1  2  1  0      
  2  3  2  0      
  3  4  1  0      
  4  5  2  0      
  5  6  1  0      
  6  7  2  0      
  2  7  1  0      
  5  8  1  0      
  8  9  1  0      
  8 10  2  0      
  3 11  1  0      
 11 12  3  0      
M  CHG  2   8   1   9  -1
M  END
$$$$
all_sdf_files.sdf
  ChemDraw04081513072D

  9  9  0  0  0  0  0  0  0  0999 V2000
   -1.0717    0.0000    0.0000 F   0  0  0  0  0  0  0  0  0  0  0  0
   -0.3572   -0.4125    0.0000 C   0  0  0  0  0  0  0  0  0  0  0  0
    0.3573    0.0000    0.0000 C   0  0  0  0  0  0  0  0  0  0  0  0
    1.0717   -0.4125    0.0000 C   0  0  0  0  0  0  0  0  0  0  0  0
    1.0717   -1.2375    0.0000 C   0  0  0  0  0  0  0  0  0  0  0  0
    0.3573   -1.6500    0.0000 C   0  0  0  0  0  0  0  0  0  0  0  0
   -0.3572   -1.2375    0.0000 C   0  0  0  0  0  0  0  0  0  0  0  0
    0.3573    0.8250    0.0000 C   0  0  0  0  0  0  0  0  0  0  0  0
    0.3573    1.6500    0.0000 N   0  0  0  0  0  0  0  0  0  0  0  0
  1  2  1  0      
  2  3  2  0      
  3  4  1  0      
  4  5  2  0      
  5  6  1  0      
  6  7  2  0      
  2  7  1  0      
  3  8  1  0      
  8  9  3  0      
M  END
$$$$
all_sdf_files.sdf
  ChemDraw04081513072D

 12 13  0  0  0  0  0  0  0  0999 V2000
   -0.3572    0.0000    0.0000 C   0  0  0  0  0  0  0  0  0  0  0  0
   -1.0716    0.4125    0.0000 C   0  0  0  0  0  0  0  0  0  0  0  0
   -1.7862    0.0000    0.0000 C   0  0  0  0  0  0  0  0  0  0  0  0
   -1.7862   -0.8250    0.0000 C   0  0  0  0  0  0  0  0  0  0  0  0
   -1.0716   -1.2375    0.0000 C   0  0  0  0  0  0  0  0  0  0  0  0
   -0.3572   -0.8250    0.0000 C   0  0  0  0  0  0  0  0  0  0  0  0
    0.3572   -1.2375    0.0000 N   0  0  0  0  0  0  0  0  0  0  0  0
    1.0717   -0.8250    0.0000 C   0  0  0  0  0  0  0  0  0  0  0  0
    1.0717    0.0000    0.0000 N   0  0  0  0  0  0  0  0  0  0  0  0
    0.3572    0.4125    0.0000 C   0  0  0  0  0  0  0  0  0  0  0  0
    0.3572    1.2375    0.0000 O   0  0  0  0  0  0  0  0  0  0  0  0
    1.7862   -1.2375    0.0000 O   0  0  0  0  0  0  0  0  0  0  0  0
  1  2  1  0      
  2  3  2  0      
  3  4  1  0      
  4  5  2  0      
  5  6  1  0      
  7  8  1  0      
  8  9  1  0      
  9 10  1  0      
  1  6  2  0      
  1 10  1  0      
  6  7  1  0      
 10 11  2  0      
  8 12  2  0      
M  END
$$$$
all_sdf_files.sdf
  ChemDraw04081513072D

 10 10  0  0  0  0  0  0  0  0999 V2000
    0.7145   -1.6500    0.0000 N   0  0  0  0  0  0  0  0  0  0  0  0
    0.7145   -0.8250    0.0000 C   0  0  0  0  0  0  0  0  0  0  0  0
   -0.0000   -0.4125    0.0000 C   0  0  0  0  0  0  0  0  0  0  0  0
   -0.0000    0.4125    0.0000 C   0  0  0  0  0  0  0  0  0  0  0  0
    0.7145    0.8250    0.0000 C   0  0  0  0  0  0  0  0  0  0  0  0
    0.7145    1.6500    0.0000 Cl  0  0  0  0  0  0  0  0  0  0  0  0
    1.4289    0.4125    0.0000 C   0  0  0  0  0  0  0  0  0  0  0  0
    1.4289   -0.4125    0.0000 C   0  0  0  0  0  0  0  0  0  0  0  0
   -0.7145   -0.8250    0.0000 C   0  0  0  0  0  0  0  0  0  0  0  0
   -1.4289   -1.2375    0.0000 N   0  0  0  0  0  0  0  0  0  0  0  0
  1  2  1  0      
  2  3  2  0      
  3  4  1  0      
  4  5  2  0      
  5  6  1  0      
  5  7  1  0      
  7  8  2  0      
  2  8  1  0      
  3  9  1  0      
  9 10  3  0      
M  END
$$$$
all_sdf_files.sdf
  ChemDraw04081513072D

 13 13  0  0  0  0  0  0  0  0999 V2000
    1.7861    1.4438    0.0000 C   0  0  0  0  0  0  0  0  0  0  0  0
    1.7861    0.6188    0.0000 O   0  0  0  0  0  0  0  0  0  0  0  0
    1.0716    0.2063    0.0000 C   0  0  0  0  0  0  0  0  0  0  0  0
    1.0716   -0.6187    0.0000 C   0  0  0  0  0  0  0  0  0  0  0  0
    0.3572   -1.0312    0.0000 C   0  0  0  0  0  0  0  0  0  0  0  0
    0.3572   -1.8562    0.0000 N   0  0  0  0  0  0  0  0  0  0  0  0
   -0.3573   -0.6187    0.0000 C   0  0  0  0  0  0  0  0  0  0  0  0
   -0.3573    0.2063    0.0000 C   0  0  0  0  0  0  0  0  0  0  0  0
    0.3572    0.6188    0.0000 C   0  0  0  0  0  0  0  0  0  0  0  0
    0.3572    1.4438    0.0000 O   0  0  0  0  0  0  0  0  0  0  0  0
    1.0716    1.8562    0.0000 C   0  0  0  0  0  0  0  0  0  0  0  0
   -1.0718   -1.0312    0.0000 C   0  0  0  0  0  0  0  0  0  0  0  0
   -1.7861   -1.4437    0.0000 N   0  0  0  0  0  0  0  0  0  0  0  0
  1  2  1  0      
  2  3  1  0      
  3  4  2  0      
  4  5  1  0      
  5  6  1  0      
  5  7  2  0      
  7  8  1  0      
  8  9  2  0      
  3  9  1  0      
  9 10  1  0      
 10 11  1  0      
  7 12  1  0      
 12 13  3  0      
M  END
$$$$
all_sdf_files.sdf
  ChemDraw04081513072D

 11 11  0  0  0  0  0  0  0  0999 V2000
    1.0717    0.0000    0.0000 C   0  0  0  0  0  0  0  0  0  0  0  0
    0.3572   -0.4125    0.0000 C   0  0  0  0  0  0  0  0  0  0  0  0
    0.3572   -1.2375    0.0000 C   0  0  0  0  0  0  0  0  0  0  0  0
   -0.3572   -1.6500    0.0000 C   0  0  0  0  0  0  0  0  0  0  0  0
   -1.0717   -1.2375    0.0000 C   0  0  0  0  0  0  0  0  0  0  0  0
   -1.0717   -0.4125    0.0000 C   0  0  0  0  0  0  0  0  0  0  0  0
   -1.7862    0.0000    0.0000 N   0  0  0  0  0  0  0  0  0  0  0  0
   -0.3572    0.0000    0.0000 C   0  0  0  0  0  0  0  0  0  0  0  0
   -0.3572    0.8250    0.0000 C   0  0  0  0  0  0  0  0  0  0  0  0
   -0.3572    1.6500    0.0000 N   0  0  0  0  0  0  0  0  0  0  0  0
    1.7862   -0.4125    0.0000 C   0  0  0  0  0  0  0  0  0  0  0  0
  1  2  1  0      
  2  3  2  0      
  3  4  1  0      
  4  5  2  0      
  5  6  1  0      
  6  7  1  0      
  6  8  2  0      
  2  8  1  0      
  8  9  1  0      
  9 10  3  0      
  1 11  1  1      
M  END
$$$$
all_sdf_files.sdf
  ChemDraw04081513072D

 10 10  0  0  0  0  0  0  0  0999 V2000
    1.0717   -0.4125    0.0000 N   0  0  0  0  0  0  0  0  0  0  0  0
    0.3572    0.0000    0.0000 C   0  0  0  0  0  0  0  0  0  0  0  0
   -0.3572   -0.4125    0.0000 C   0  0  0  0  0  0  0  0  0  0  0  0
   -1.0717    0.0000    0.0000 C   0  0  0  0  0  0  0  0  0  0  0  0
   -1.0717    0.8250    0.0000 C   0  0  0  0  0  0  0  0  0  0  0  0
   -0.3572    1.2375    0.0000 C   0  0  0  0  0  0  0  0  0  0  0  0
   -0.3572    2.0625    0.0000 Cl  0  0  0  0  0  0  0  0  0  0  0  0
    0.3572    0.8250    0.0000 C   0  0  0  0  0  0  0  0  0  0  0  0
   -0.3572   -1.2375    0.0000 C   0  0  0  0  0  0  0  0  0  0  0  0
   -0.3572   -2.0625    0.0000 N   0  0  0  0  0  0  0  0  0  0  0  0
  1  2  1  0      
  2  3  2  0      
  3  4  1  0      
  4  5  2  0      
  5  6  1  0      
  6  7  1  0      
  6  8  2  0      
  2  8  1  0      
  3  9  1  0      
  9 10  3  0      
M  END
$$$$
all_sdf_files.sdf
  ChemDraw04081513072D

 10 10  0  0  0  0  0  0  0  0999 V2000
   -0.7145   -1.2375    0.0000 N   0  0  0  0  0  0  0  0  0  0  0  0
   -0.0000   -0.8250    0.0000 C   0  0  0  0  0  0  0  0  0  0  0  0
   -0.0000    0.0000    0.0000 C   0  0  0  0  0  0  0  0  0  0  0  0
   -0.7145    0.4125    0.0000 C   0  0  0  0  0  0  0  0  0  0  0  0
   -1.4289    0.8250    0.0000 N   0  0  0  0  0  0  0  0  0  0  0  0
    0.7145    0.4125    0.0000 C   0  0  0  0  0  0  0  0  0  0  0  0
    0.7145    1.2375    0.0000 F   0  0  0  0  0  0  0  0  0  0  0  0
    1.4289    0.0000    0.0000 C   0  0  0  0  0  0  0  0  0  0  0  0
    1.4289   -0.8250    0.0000 C   0  0  0  0  0  0  0  0  0  0  0  0
    0.7145   -1.2375    0.0000 C   0  0  0  0  0  0  0  0  0  0  0  0
  1  2  1  0      
  2  3  2  0      
  3  4  1  0      
  4  5  3  0      
  3  6  1  0      
  6  7  1  0      
  6  8  2  0      
  8  9  1  0      
  9 10  2  0      
  2 10  1  0      
M  END
$$$$
all_sdf_files.sdf
  ChemDraw04081513072D

  9  9  0  0  0  0  0  0  0  0999 V2000
   -1.0717    0.0000    0.0000 N   0  0  0  0  0  0  0  0  0  0  0  0
   -0.3572   -0.4125    0.0000 C   0  0  0  0  0  0  0  0  0  0  0  0
    0.3573    0.0000    0.0000 C   0  0  0  0  0  0  0  0  0  0  0  0
    1.0717   -0.4125    0.0000 C   0  0  0  0  0  0  0  0  0  0  0  0
    1.0717   -1.2375    0.0000 C   0  0  0  0  0  0  0  0  0  0  0  0
    0.3573   -1.6500    0.0000 C   0  0  0  0  0  0  0  0  0  0  0  0
   -0.3572   -1.2375    0.0000 C   0  0  0  0  0  0  0  0  0  0  0  0
    0.3573    0.8250    0.0000 C   0  0  0  0  0  0  0  0  0  0  0  0
    0.3573    1.6500    0.0000 N   0  0  0  0  0  0  0  0  0  0  0  0
  1  2  1  0      
  2  3  2  0      
  3  4  1  0      
  4  5  2  0      
  5  6  1  0      
  6  7  2  0      
  2  7  1  0      
  3  8  1  0      
  8  9  3  0      
M  END
$$$$
all_sdf_files.sdf
  ChemDraw04081513072D

 12 13  0  0  0  0  0  0  0  0999 V2000
   -0.3572    0.8250    0.0000 C   0  0  0  0  0  0  0  0  0  0  0  0
   -1.0717    1.2375    0.0000 C   0  0  0  0  0  0  0  0  0  0  0  0
   -1.7862    0.8250    0.0000 C   0  0  0  0  0  0  0  0  0  0  0  0
   -1.7862    0.0000    0.0000 C   0  0  0  0  0  0  0  0  0  0  0  0
   -1.0717   -0.4125    0.0000 C   0  0  0  0  0  0  0  0  0  0  0  0
   -0.3572    0.0000    0.0000 C   0  0  0  0  0  0  0  0  0  0  0  0
    0.3572   -0.4125    0.0000 N   0  0  0  0  0  0  0  0  0  0  0  0
    1.0718    0.0000    0.0000 C   0  0  0  0  0  0  0  0  0  0  0  0
    1.0718    0.8250    0.0000 C   0  0  0  0  0  0  0  0  0  0  0  0
    0.3572    1.2375    0.0000 C   0  0  0  0  0  0  0  0  0  0  0  0
    1.7862   -0.4125    0.0000 S   0  0  0  0  0  0  0  0  0  0  0  0
    0.3572   -1.2375    0.0000 C   0  0  0  0  0  0  0  0  0  0  0  0
  1  2  1  0      
  2  3  2  0      
  3  4  1  0      
  4  5  2  0      
  5  6  1  0      
  7  8  1  0      
  8  9  1  0      
  9 10  2  0      
  1  6  2  0      
  1 10  1  0      
  6  7  1  0      
  8 11  2  0      
  7 12  1  0      
M  END
$$$$
all_sdf_files.sdf
  ChemDraw04081513072D

 15 16  0  0  0  0  0  0  0  0999 V2000
    0.3572    0.4125    0.0000 C   0  0  0  0  0  0  0  0  0  0  0  0
   -0.3572    0.8250    0.0000 C   0  0  0  0  0  0  0  0  0  0  0  0
   -1.0718    0.4125    0.0000 C   0  0  0  0  0  0  0  0  0  0  0  0
   -1.0718   -0.4125    0.0000 C   0  0  0  0  0  0  0  0  0  0  0  0
   -0.3572   -0.8250    0.0000 C   0  0  0  0  0  0  0  0  0  0  0  0
    0.3572   -0.4125    0.0000 C   0  0  0  0  0  0  0  0  0  0  0  0
    1.0716   -0.8250    0.0000 N   0  0  0  0  0  0  0  0  0  0  0  0
    1.7862   -0.4125    0.0000 C   0  0  0  0  0  0  0  0  0  0  0  0
    1.7862    0.4125    0.0000 C   0  0  0  0  0  0  0  0  0  0  0  0
    1.0716    0.8250    0.0000 C   0  0  0  0  0  0  0  0  0  0  0  0
    2.5006   -0.8250    0.0000 O   0  0  0  0  0  0  0  0  0  0  0  0
    1.0716   -1.6500    0.0000 C   0  0  0  0  0  0  0  0  0  0  0  0
   -1.7862    0.8250    0.0000 N   0  0  0  0  0  0  0  0  0  0  0  0
   -2.5006    0.4126    0.0000 O   0  0  0  0  0  0  0  0  0  0  0  0
   -1.7861    1.6500    0.0000 O   0  0  0  0  0  0  0  0  0  0  0  0
  1  2  1  0      
  2  3  2  0      
  3  4  1  0      
  4  5  2  0      
  5  6  1  0      
  7  8  1  0      
  8  9  1  0      
  9 10  2  0      
  1  6  2  0      
  1 10  1  0      
  6  7  1  0      
  8 11  2  0      
  7 12  1  0      
  3 13  1  0      
 13 14  1  0      
 13 15  1  0      
M  END
$$$$
all_sdf_files.sdf
  ChemDraw04081513072D

 15 16  0  0  0  0  0  0  0  0999 V2000
    0.3572    1.0312    0.0000 C   0  0  0  0  0  0  0  0  0  0  0  0
   -0.3572    1.4437    0.0000 C   0  0  0  0  0  0  0  0  0  0  0  0
   -1.0718    1.0312    0.0000 C   0  0  0  0  0  0  0  0  0  0  0  0
   -1.0718    0.2062    0.0000 C   0  0  0  0  0  0  0  0  0  0  0  0
   -0.3572   -0.2063    0.0000 C   0  0  0  0  0  0  0  0  0  0  0  0
    0.3572    0.2062    0.0000 C   0  0  0  0  0  0  0  0  0  0  0  0
    1.0716   -0.2063    0.0000 N   0  0  0  0  0  0  0  0  0  0  0  0
    1.7862    0.2062    0.0000 C   0  0  0  0  0  0  0  0  0  0  0  0
    1.7862    1.0312    0.0000 C   0  0  0  0  0  0  0  0  0  0  0  0
    1.0716    1.4437    0.0000 C   0  0  0  0  0  0  0  0  0  0  0  0
    2.5006   -0.2063    0.0000 O   0  0  0  0  0  0  0  0  0  0  0  0
    1.0716   -1.0313    0.0000 C   0  0  0  0  0  0  0  0  0  0  0  0
   -1.7862    1.4437    0.0000 O   0  0  0  0  0  0  0  0  0  0  0  0
   -2.5006    1.0313    0.0000 C   0  0  0  0  0  0  0  0  0  0  0  0
    0.3571   -1.4437    0.0000 C   0  0  0  0  0  0  0  0  0  0  0  0
  1  2  1  0      
  2  3  2  0      
  3  4  1  0      
  4  5  2  0      
  5  6  1  0      
  7  8  1  0      
  8  9  1  0      
  9 10  2  0      
  1  6  2  0      
  1 10  1  0      
  6  7  1  0      
  8 11  2  0      
  7 12  1  0      
  3 13  1  0      
 13 14  1  0      
 12 15  1  0      
M  END
$$$$
all_sdf_files.sdf
  ChemDraw04081513072D

 13 14  0  0  0  0  0  0  0  0999 V2000
   -0.3572    0.4125    0.0000 C   0  0  0  0  0  0  0  0  0  0  0  0
   -1.0717    0.8250    0.0000 C   0  0  0  0  0  0  0  0  0  0  0  0
   -1.7862    0.4125    0.0000 C   0  0  0  0  0  0  0  0  0  0  0  0
   -1.7862   -0.4125    0.0000 C   0  0  0  0  0  0  0  0  0  0  0  0
   -1.0717   -0.8250    0.0000 C   0  0  0  0  0  0  0  0  0  0  0  0
   -0.3572   -0.4125    0.0000 C   0  0  0  0  0  0  0  0  0  0  0  0
    0.3572   -0.8250    0.0000 N   0  0  0  0  0  0  0  0  0  0  0  0
    1.0718   -0.4125    0.0000 C   0  0  0  0  0  0  0  0  0  0  0  0
    1.0718    0.4125    0.0000 C   0  0  0  0  0  0  0  0  0  0  0  0
    0.3572    0.8250    0.0000 C   0  0  0  0  0  0  0  0  0  0  0  0
    1.7862   -0.8250    0.0000 O   0  0  0  0  0  0  0  0  0  0  0  0
    0.3572   -1.6500    0.0000 C   0  0  0  0  0  0  0  0  0  0  0  0
    0.3572    1.6500    0.0000 O   0  0  0  0  0  0  0  0  0  0  0  0
  1  2  1  0      
  2  3  2  0      
  3  4  1  0      
  4  5  2  0      
  5  6  1  0      
  7  8  1  0      
  8  9  1  0      
  9 10  2  0      
  1  6  2  0      
  1 10  1  0      
  6  7  1  0      
  8 11  2  0      
  7 12  1  0      
 10 13  1  0      
M  END
$$$$
all_sdf_files.sdf
  ChemDraw04081513072D

 13 14  0  0  0  0  0  0  0  0999 V2000
   -0.3572    0.4125    0.0000 C   0  0  0  0  0  0  0  0  0  0  0  0
   -1.0717    0.8250    0.0000 C   0  0  0  0  0  0  0  0  0  0  0  0
   -1.7862    0.4125    0.0000 C   0  0  0  0  0  0  0  0  0  0  0  0
   -1.7862   -0.4125    0.0000 C   0  0  0  0  0  0  0  0  0  0  0  0
   -1.0717   -0.8250    0.0000 C   0  0  0  0  0  0  0  0  0  0  0  0
   -0.3572   -0.4125    0.0000 C   0  0  0  0  0  0  0  0  0  0  0  0
    0.3572   -0.8250    0.0000 N   0  0  0  0  0  0  0  0  0  0  0  0
    1.0718   -0.4125    0.0000 C   0  0  0  0  0  0  0  0  0  0  0  0
    1.0718    0.4125    0.0000 C   0  0  0  0  0  0  0  0  0  0  0  0
    0.3572    0.8250    0.0000 C   0  0  0  0  0  0  0  0  0  0  0  0
    1.7862   -0.8250    0.0000 O   0  0  0  0  0  0  0  0  0  0  0  0
    0.3572   -1.6500    0.0000 C   0  0  0  0  0  0  0  0  0  0  0  0
    0.3572    1.6500    0.0000 C   0  0  0  0  0  0  0  0  0  0  0  0
  1  2  1  0      
  2  3  2  0      
  3  4  1  0      
  4  5  2  0      
  5  6  1  0      
  7  8  1  0      
  8  9  1  0      
  9 10  2  0      
  1  6  2  0      
  1 10  1  0      
  6  7  1  0      
  8 11  2  0      
  7 12  1  0      
 10 13  1  0      
M  END
$$$$
all_sdf_files.sdf
  ChemDraw04081513072D

 13 14  0  0  0  0  0  0  0  0999 V2000
   -0.3572    0.4125    0.0000 C   0  0  0  0  0  0  0  0  0  0  0  0
   -1.0717    0.8250    0.0000 C   0  0  0  0  0  0  0  0  0  0  0  0
   -1.7862    0.4125    0.0000 C   0  0  0  0  0  0  0  0  0  0  0  0
   -1.7862   -0.4125    0.0000 C   0  0  0  0  0  0  0  0  0  0  0  0
   -1.0717   -0.8250    0.0000 C   0  0  0  0  0  0  0  0  0  0  0  0
   -0.3572   -0.4125    0.0000 C   0  0  0  0  0  0  0  0  0  0  0  0
    0.3572   -0.8250    0.0000 N   0  0  0  0  0  0  0  0  0  0  0  0
    1.0718   -0.4125    0.0000 C   0  0  0  0  0  0  0  0  0  0  0  0
    1.0718    0.4125    0.0000 C   0  0  0  0  0  0  0  0  0  0  0  0
    0.3572    0.8250    0.0000 C   0  0  0  0  0  0  0  0  0  0  0  0
    1.7862   -0.8250    0.0000 O   0  0  0  0  0  0  0  0  0  0  0  0
    0.3572   -1.6500    0.0000 C   0  0  0  0  0  0  0  0  0  0  0  0
    0.3572    1.6500    0.0000 Cl  0  0  0  0  0  0  0  0  0  0  0  0
  1  2  1  0      
  2  3  2  0      
  3  4  1  0      
  4  5  2  0      
  5  6  1  0      
  7  8  1  0      
  8  9  1  0      
  9 10  2  0      
  1  6  2  0      
  1 10  1  0      
  6  7  1  0      
  8 11  2  0      
  7 12  1  0      
 10 13  1  0      
M  END
$$$$
all_sdf_files.sdf
  ChemDraw04081513072D

 17 18  0  0  0  0  0  0  0  0999 V2000
   -0.3572    0.4124    0.0000 C   0  0  0  0  0  0  0  0  0  0  0  0
   -1.0717    0.8249    0.0000 C   0  0  0  0  0  0  0  0  0  0  0  0
   -1.7862    0.4124    0.0000 C   0  0  0  0  0  0  0  0  0  0  0  0
   -1.7862   -0.4126    0.0000 C   0  0  0  0  0  0  0  0  0  0  0  0
   -1.0717   -0.8251    0.0000 C   0  0  0  0  0  0  0  0  0  0  0  0
   -0.3572   -0.4126    0.0000 C   0  0  0  0  0  0  0  0  0  0  0  0
    0.3572   -0.8251    0.0000 N   0  0  0  0  0  0  0  0  0  0  0  0
    1.0718   -0.4126    0.0000 C   0  0  0  0  0  0  0  0  0  0  0  0
    1.0718    0.4124    0.0000 C   0  0  0  0  0  0  0  0  0  0  0  0
    0.3572    0.8249    0.0000 C   0  0  0  0  0  0  0  0  0  0  0  0
    1.7862   -0.8251    0.0000 O   0  0  0  0  0  0  0  0  0  0  0  0
    0.3572   -1.6501    0.0000 C   0  0  0  0  0  0  0  0  0  0  0  0
    0.3572    1.6499    0.0000 C   0  0  0  0  0  0  0  0  0  0  0  0
   -1.0716    1.6499    0.0000 O   0  0  0  0  0  0  0  0  0  0  0  0
   -1.7861    2.0625    0.0000 C   0  0  0  0  0  0  0  0  0  0  0  0
   -1.0716   -1.6501    0.0000 O   0  0  0  0  0  0  0  0  0  0  0  0
   -0.3572   -2.0625    0.0000 C   0  0  0  0  0  0  0  0  0  0  0  0
  1  2  1  0      
  2  3  2  0      
  3  4  1  0      
  4  5  2  0      
  5  6  1  0      
  7  8  1  0      
  8  9  1  0      
  9 10  2  0      
  1  6  2  0      
  1 10  1  0      
  6  7  1  0      
  8 11  2  0      
  7 12  1  0      
 10 13  1  0      
  2 14  1  0      
 14 15  1  0      
  5 16  1  0      
 16 17  1  0      
M  END
$$$$
all_sdf_files.sdf
  ChemDraw04081513072D

 18 20  0  0  0  0  0  0  0  0999 V2000
   -0.3572   -0.4125    0.0000 C   0  0  0  0  0  0  0  0  0  0  0  0
   -1.0717   -0.0000    0.0000 C   0  0  0  0  0  0  0  0  0  0  0  0
   -1.7862   -0.4125    0.0000 C   0  0  0  0  0  0  0  0  0  0  0  0
   -1.7862   -1.2375    0.0000 C   0  0  0  0  0  0  0  0  0  0  0  0
   -1.0717   -1.6500    0.0000 C   0  0  0  0  0  0  0  0  0  0  0  0
   -0.3572   -1.2375    0.0000 C   0  0  0  0  0  0  0  0  0  0  0  0
    0.3572   -1.6500    0.0000 N   0  0  0  0  0  0  0  0  0  0  0  0
    1.0718   -1.2375    0.0000 C   0  0  0  0  0  0  0  0  0  0  0  0
    1.0718   -0.4125    0.0000 C   0  0  0  0  0  0  0  0  0  0  0  0
    0.3572   -0.0000    0.0000 C   0  0  0  0  0  0  0  0  0  0  0  0
    1.7862   -1.6500    0.0000 O   0  0  0  0  0  0  0  0  0  0  0  0
    0.3572   -2.4750    0.0000 C   0  0  0  0  0  0  0  0  0  0  0  0
    0.3572    0.8250    0.0000 C   0  0  0  0  0  0  0  0  0  0  0  0
    1.0717    1.2375    0.0000 C   0  0  0  0  0  0  0  0  0  0  0  0
    1.0716    2.0625    0.0000 C   0  0  0  0  0  0  0  0  0  0  0  0
    0.3572    2.4750    0.0000 C   0  0  0  0  0  0  0  0  0  0  0  0
   -0.3573    2.0625    0.0000 C   0  0  0  0  0  0  0  0  0  0  0  0
   -0.3573    1.2375    0.0000 C   0  0  0  0  0  0  0  0  0  0  0  0
  1  2  1  0      
  2  3  2  0      
  3  4  1  0      
  4  5  2  0      
  5  6  1  0      
  7  8  1  0      
  8  9  1  0      
  9 10  2  0      
  1  6  2  0      
  1 10  1  0      
  6  7  1  0      
  8 11  2  0      
  7 12  1  0      
 10 13  1  0      
 13 14  1  0      
 13 18  2  0      
 14 15  2  0      
 15 16  1  0      
 16 17  2  0      
 17 18  1  0      
M  END
$$$$
all_sdf_files.sdf
  ChemDraw04081513072D

 21 23  0  0  0  0  0  0  0  0999 V2000
   -0.3572   -1.0313    0.0000 C   0  0  0  0  0  0  0  0  0  0  0  0
   -1.0717   -0.6188    0.0000 C   0  0  0  0  0  0  0  0  0  0  0  0
   -1.7862   -1.0313    0.0000 C   0  0  0  0  0  0  0  0  0  0  0  0
   -1.7862   -1.8563    0.0000 C   0  0  0  0  0  0  0  0  0  0  0  0
   -1.0717   -2.2688    0.0000 C   0  0  0  0  0  0  0  0  0  0  0  0
   -0.3572   -1.8563    0.0000 C   0  0  0  0  0  0  0  0  0  0  0  0
    0.3572   -2.2688    0.0000 N   0  0  0  0  0  0  0  0  0  0  0  0
    1.0718   -1.8563    0.0000 C   0  0  0  0  0  0  0  0  0  0  0  0
    1.0718   -1.0313    0.0000 C   0  0  0  0  0  0  0  0  0  0  0  0
    0.3572   -0.6188    0.0000 C   0  0  0  0  0  0  0  0  0  0  0  0
    1.7862   -2.2688    0.0000 O   0  0  0  0  0  0  0  0  0  0  0  0
    0.3572   -3.0938    0.0000 C   0  0  0  0  0  0  0  0  0  0  0  0
    0.3572    0.2062    0.0000 C   0  0  0  0  0  0  0  0  0  0  0  0
    1.0717    0.6188    0.0000 C   0  0  0  0  0  0  0  0  0  0  0  0
    1.0716    1.4438    0.0000 C   0  0  0  0  0  0  0  0  0  0  0  0
    0.3572    1.8563    0.0000 C   0  0  0  0  0  0  0  0  0  0  0  0
   -0.3573    1.4437    0.0000 C   0  0  0  0  0  0  0  0  0  0  0  0
   -0.3573    0.6187    0.0000 C   0  0  0  0  0  0  0  0  0  0  0  0
    0.3572    2.6813    0.0000 N   0  0  0  0  0  0  0  0  0  0  0  0
   -0.3573    3.0938    0.0000 C   0  0  0  0  0  0  0  0  0  0  0  0
    1.0716    3.0938    0.0000 C   0  0  0  0  0  0  0  0  0  0  0  0
  1  2  1  0      
  2  3  2  0      
  3  4  1  0      
  4  5  2  0      
  5  6  1  0      
  7  8  1  0      
  8  9  1  0      
  9 10  2  0      
  1  6  2  0      
  1 10  1  0      
  6  7  1  0      
  8 11  2  0      
  7 12  1  0      
 10 13  1  0      
 13 14  1  0      
 13 18  2  0      
 14 15  2  0      
 15 16  1  0      
 16 17  2  0      
 17 18  1  0      
 16 19  1  0      
 19 20  1  6      
 19 21  1  1      
M  END
$$$$
all_sdf_files.sdf
  ChemDraw04081513072D

 16 18  0  0  0  0  0  0  0  0999 V2000
   -0.3572    0.2062    0.0000 C   0  0  0  0  0  0  0  0  0  0  0  0
   -1.0717    0.6187    0.0000 C   0  0  0  0  0  0  0  0  0  0  0  0
   -1.7862    0.2062    0.0000 C   0  0  0  0  0  0  0  0  0  0  0  0
   -1.7862   -0.6188    0.0000 C   0  0  0  0  0  0  0  0  0  0  0  0
   -1.0717   -1.0313    0.0000 C   0  0  0  0  0  0  0  0  0  0  0  0
   -0.3572   -0.6188    0.0000 C   0  0  0  0  0  0  0  0  0  0  0  0
    0.3572   -1.0313    0.0000 N   0  0  0  0  0  0  0  0  0  0  0  0
    1.0718   -0.6188    0.0000 C   0  0  0  0  0  0  0  0  0  0  0  0
    1.0718    0.2062    0.0000 C   0  0  0  0  0  0  0  0  0  0  0  0
    0.3572    0.6187    0.0000 C   0  0  0  0  0  0  0  0  0  0  0  0
    1.7862   -1.0313    0.0000 O   0  0  0  0  0  0  0  0  0  0  0  0
    0.3572   -1.8563    0.0000 C   0  0  0  0  0  0  0  0  0  0  0  0
    0.3572    1.4437    0.0000 C   0  0  0  0  0  0  0  0  0  0  0  0
    1.0717    1.8563    0.0000 C   0  0  0  0  0  0  0  0  0  0  0  0
    1.7862    1.4438    0.0000 C   0  0  0  0  0  0  0  0  0  0  0  0
    1.7862    0.6188    0.0000 C   0  0  0  0  0  0  0  0  0  0  0  0
  1  2  1  0      
  2  3  2  0      
  3  4  1  0      
  4  5  2  0      
  5  6  1  0      
  7  8  1  0      
  8  9  1  0      
  1  6  2  0      
  1 10  1  0      
  6  7  1  0      
  8 11  2  0      
  7 12  1  0      
  9 16  1  0      
  9 10  2  0      
 10 13  1  0      
 13 14  2  0      
 14 15  1  0      
 15 16  2  0      
M  END
$$$$
