behave-triflate.cdx
  ChemDraw04091516342D

 17 14  0  0  0  0  0  0  0  0999 V2000
   -1.4143    2.0625    0.0000 Cu  0  2  0  0  0  0  0  0  0  0  0  0
    1.4143    0.8250    0.0000 O   0  5  0  0  0  0  0  0  0  0  0  0
    1.4143    1.6500    0.0000 S   0  0  0  0  0  0  0  0  0  0  0  0
    2.2393    1.6500    0.0000 O   0  0  0  0  0  0  0  0  0  0  0  0
    0.5893    1.6500    0.0000 O   0  0  0  0  0  0  0  0  0  0  0  0
    1.4143    2.4750    0.0000 C   0  0  0  0  0  0  0  0  0  0  0  0
    1.4143    3.3000    0.0000 F   0  0  0  0  0  0  0  0  0  0  0  0
    2.2393    2.4750    0.0000 F   0  0  0  0  0  0  0  0  0  0  0  0
    0.5893    2.4750    0.0000 F   0  0  0  0  0  0  0  0  0  0  0  0
   -1.4143   -3.3000    0.0000 O   0  5  0  0  0  0  0  0  0  0  0  0
   -1.4143   -2.4750    0.0000 S   0  0  0  0  0  0  0  0  0  0  0  0
   -0.5893   -2.4750    0.0000 O   0  0  0  0  0  0  0  0  0  0  0  0
   -2.2393   -2.4750    0.0000 O   0  0  0  0  0  0  0  0  0  0  0  0
   -1.4143   -1.6500    0.0000 C   0  0  0  0  0  0  0  0  0  0  0  0
   -1.4143   -0.8250    0.0000 F   0  0  0  0  0  0  0  0  0  0  0  0
   -0.5893   -1.6500    0.0000 F   0  0  0  0  0  0  0  0  0  0  0  0
   -2.2393   -1.6500    0.0000 F   0  0  0  0  0  0  0  0  0  0  0  0
  2  3  1  0      
  3  4  2  0      
  3  5  2  0      
  3  6  1  0      
  6  7  1  0      
  6  8  1  0      
  6  9  1  0      
 10 11  1  0      
 11 12  2  0      
 11 13  2  0      
 11 14  1  0      
 14 15  1  0      
 14 16  1  0      
 14 17  1  0      
M  CHG  3   1   2   2  -1  10  -1
M  END
$$$$
